Version 4.1
SHEET 1 880 680
WIRE 240 32 128 32
WIRE 400 32 320 32
WIRE 128 80 128 32
WIRE 400 80 400 32
FLAG 128 160 0
FLAG 400 144 0
SYMBOL voltage 128 64 R0
WINDOW 123 24 124 Left 2
WINDOW 39 0 0 Left 0
SYMATTR Value2 AC 5 0
SYMATTR InstName V1
SYMATTR Value SINE(0 5 50)
SYMBOL res 336 16 R90
WINDOW 0 0 56 VBottom 2
WINDOW 3 32 56 VTop 2
SYMATTR InstName R1
SYMATTR Value 500
SYMBOL cap 384 80 R0
SYMATTR InstName C1
SYMATTR Value 50”
TEXT 280 216 Left 2 !.ac dec 10 0.002 2k
